$pyNastran: version=msc
$pyNastran: punch=False
$pyNastran: encoding=latin1
$pyNastran: nnodes=913
$pyNastran: nelements=910
$EXECUTIVE CONTROL DECK
$
$ OUTPUT PRODUCED BY ADS NASTRAN VERSION 18.0.0.17   14:07  11/27/23
$
SOL 101
CEND
$CASE CONTROL DECK
DISPLACEMENT(PLOT) = ALL
ECHO = NONE
NLSTRESS(PLOT) = ALL
SPCFORCES(PLOT) = ALL
STRESS(PLOT,CORNER) = ALL
SUBTITLE = Front Edge Constrained
TITLE = Sail Static
SUBCASE 1
    LABEL = SUBCASE 1
    LOAD = 3
    SPC = 3
SUBCASE 2
    LABEL = SUBCASE 2
    LOAD = 5
    SPC = 3
BEGIN BULK
$PARAMS
PARAM       POST      -1
PARAM      SNORM      1.
$NODES
$------1-------2-------3-------4-------5-------6-------7-------8-------9-------0
GRID           1        -418.6251177.6151156.056
GRID           2        -418.4241257.6911107.493
GRID           3        -416.9841341.1871057.553
GRID           4        -422.5511709.1551006.449
GRID           5        -417.9331610.661990.2264
GRID           6        -417.1921524.6041004.002
GRID           7        -417.1461435.2991027.751
GRID           8        -405.3061204.4481010.155
GRID           9         -399.181296.279939.8448
GRID          10        -405.5411693.008896.8988
GRID          11        -412.8591883.634916.6078
GRID          12         -395.252176.956 807.482
GRID          13        -408.5581992.761882.9607
GRID          14        -420.0451808.377972.3284
GRID          15        -428.4491553.6531098.879
GRID          16         -428.581470.0211132.052
GRID          17        -397.581 1092.78993.6945
GRID          18        -381.7551089.905895.1248
GRID          19        -424.6661205.4491253.628
GRID          20        -420.5311099.7671291.164
$ ... 893 like lines cut
$ELEMENTS
CTRIAR         1       1     553     422     474
CTRIAR         2       1     553     552     422
CTRIAR         3       1       8     665       9
CQUADR         4       1       9     852       7       3
CQUADR         5       1       8       9       3       2
CQUADR         6       1     258     798     279     567
CTRIAR         7       1     279     568     567
CTRIAR         8       1     474     422     473
CQUADR         9       1     553     474     475     554
CQUADR        10       1     671     578      47     747
CQUADR        11       1     671      45     574     578
CQUADR        12       1     758      27      38     357
CTRIAR        13       1      38      41     357
CQUADR        14       1     751      77     717     882
CQUADR        15       1     897     898     882     717
CQUADR        16       1     800     181     681     902
CQUADR        17       1     500     568     279     501
CQUADR        18       1     500     555     499     568
CQUADR        19       1       2       1     761       8
CQUADR        20       1     670     853     761       1
CQUADR        21       1      19      20     670       1
CQUADR        22       1     664      19       1       2
CQUADR        23       1     591     664       2       3
CQUADR        24       1      16     591       3       7
CQUADR        25       1      15      16       7       6
CQUADR        26       1     760      15       6       5
CTRIAR        27       1       4     760       5
CTRIAR        28       1     396      11      14
CQUADR        29       1      10     396      14       4
CQUADR        30       1     851      10       4       5
CQUADR        31       1     592     851       5       6
CQUADR        32       1     852     592       6       7
CQUADR        33       1     853      17       8     761
CQUADR        34       1      17      18     665       8
CQUADR        35       1      21     593       9     665
CQUADR        36       1     839      21     665      18
CQUADR        37       1     593      22     852       9
CQUADR        38       1      22     399     592     852
CQUADR        39       1     399     837     851     592
CQUADR        40       1     837     849      10     851
CQUADR        41       1     849      23     396      10
CQUADR        42       1      23     850      11     396
CQUADR        43       1     850     401      13      11
CTRIAR        44       1     401     379      13
CTRIAR        45       1     378      29      12
CQUADR        46       1      29      30     379      12
CQUADR        47       1      25      26     853     670
CQUADR        48       1      24      25     670      20
CQUADR        49       1      26     854      17     853
CQUADR        50       1      30      31      13     379
CQUADR        51       1      31     394      11      13
CQUADR        52       1     394     395      14      11
CQUADR        53       1     395     759       4      14
CQUADR        54       1     759     388     760       4
CQUADR        55       1     388     744      15     760
CQUADR        56       1     744     389      16      15
CQUADR        57       1     389     590     591      16
CQUADR        58       1     590     745     664     591
CQUADR        59       1     854     840      18      17
CQUADR        60       1     840      32     839      18
CQUADR        61       1     745     663      19     664
CTRIAR        62       1     747      24      20
CQUADR        63       1     663     746      20      19
CQUADR        64       1     746     671     747      20
CQUADR        65       1     729     728     839      32
CQUADR        66       1     728      33      21     839
CQUADR        67       1      33     666     593      21
CQUADR        68       1     666     408      22     593
CQUADR        69       1     408      34     399      22
CQUADR        70       1      34      35     837     399
CQUADR        71       1      35      36     849     837
CQUADR        72       1      36     412      23     849
CQUADR        73       1     412     836     850      23
CQUADR        74       1     836      37     401     850
CQUADR        75       1      37     393     379     401
CQUADR        76       1      47      48      24     747
CQUADR        77       1      48      49      25      24
CQUADR        78       1      49     862      26      25
CQUADR        79       1     862      50     854      26
CQUADR        80       1      50      51     840     854
CQUADR        81       1     393     835      12     379
CQUADR        82       1     835     392     378      12
CQUADR        83       1     392     377     861     378
CQUADR        84       1     377     364      28     861
CTRIAR        85       1     364      27      28
CQUADR        86       1     758      42      28      27
CQUADR        87       1      51     841      32     840
CQUADR        88       1      42      43     861      28
CQUADR        89       1      43     597     378     861
CQUADR        90       1     597     742      29     378
CQUADR        91       1     742     604      30      29
CQUADR        92       1     604     381      31      30
CQUADR        93       1     381      44     394      31
CQUADR        94       1      44     743     395     394
CQUADR        95       1     743     382     759     395
CQUADR        96       1     382     380     388     759
CQUADR        97       1     380     707     744     388
CQUADR        98       1     707     335     389     744
CQUADR        99       1     335     589     590     389
CQUADR       100       1     841      52     729      32
CQUADR       101       1     589     709     745     590
CQUADR       102       1     709     662     663     745
CQUADR       103       1     662     711     746     663
CQUADR       104       1     711      45     671     746
CTRIAR       105       1     574      46     578
CQUADR       106       1     572      60     729      52
CQUADR       107       1      60     727     728     729
CQUADR       108       1     727     667      33     728
CQUADR       109       1     667     838     666      33
CQUADR       110       1     838      59     408     666
CQUADR       111       1      59     726      34     408
CQUADR       112       1     726     407      35      34
CQUADR       113       1     407     419      36      35
CQUADR       114       1     419      58     412      36
CQUADR       115       1      58     410     836     412
CQUADR       116       1     410     834      37     836
CQUADR       117       1     834     400     393      37
CQUADR       118       1     400      57     835     393
CQUADR       119       1      57      56     392     835
CQUADR       120       1      56      55     377     392
CQUADR       121       1      55      54     364     377
CQUADR       122       1      54     833      27     364
CQUADR       123       1     833      53      38      27
CQUADR       124       1      53     363      41      38
CTRIAR       125       1     363      40      41
CTRIAR       126       1      66      67      39
CQUADR       127       1      67     618      40      39
CQUADR       128       1     618      68      41      40
CQUADR       129       1      68      69     357      41
CQUADR       130       1      69     350     758     357
CQUADR       131       1     350     330      42     758
CQUADR       132       1     330     703      43      42
CQUADR       133       1     703      70     597      43
CQUADR       134       1      70     365     742     597
CQUADR       135       1     365     366     604     742
CQUADR       136       1     366     603     381     604
CQUADR       137       1     603     369      44     381
CQUADR       138       1     369     705     743      44
CQUADR       139       1     705     370     382     743
CQUADR       140       1     370      71     380     382
CQUADR       141       1      71      72     707     380
CQUADR       142       1      72     372     335     707
CQUADR       143       1     372      73     589     335
CQUADR       144       1      73     710     709     589
CQUADR       145       1     710     661     662     709
CQUADR       146       1     661      75     711     662
$ ... 14 like lines cut
CTRIAR       161       1      82     755      74
CQUADR       162       1     609      82      74      66
CQUADR       163       1      88     609      66      39
CQUADR       164       1     832      88      39      40
CQUADR       165       1      89     832      40     363
CQUADR       166       1     619      89     363      53
CQUADR       167       1     376     619      53     833
CQUADR       168       1     723     376     833      54
CQUADR       169       1     391     723      54      55
CQUADR       170       1     722     391      55      56
CQUADR       171       1     406     722      56      57
CQUADR       172       1     411     406      57     400
CQUADR       173       1     724     411     400     834
CQUADR       174       1     418     724     834     410
CQUADR       175       1     323     418     410      58
CQUADR       176       1     413     323      58     419
CQUADR       177       1     100     413     419     407
CQUADR       178       1     769     100     407     726
CQUADR       179       1     414     769     726      59
CQUADR       180       1     725     414      59     838
CQUADR       181       1     101     725     838     667
$ ... 44 like lines cut
CTRIAR       226       1      85     633      83
CQUADR       227       1     792     103      79     774
CTRIAR       228       1     104     792     774
CQUADR       229       1     899     883     882     898
CQUADR       230       1     883     111     751     882
CQUADR       231       1     111     112     716     751
CQUADR       232       1     112     113      80     716
CQUADR       233       1     113     748     579      80
CQUADR       234       1     748     114     762     579
CQUADR       235       1     114     115     863     762
CQUADR       236       1     115     856     580     863
CQUADR       237       1     856     116     855     580
CQUADR       238       1     116     843     582     855
CQUADR       239       1     843     734      81     582
CQUADR       240       1     734     735     583      81
CQUADR       241       1     654     118      82     609
CQUADR       242       1     118     831     755      82
CQUADR       243       1     831     634      83     755
CQUADR       244       1     634     830      85      83
CQUADR       245       1     830     117      84      85
CQUADR       246       1     624     625      84     117
CQUADR       247       1     625     106      85      84
CQUADR       248       1     106     107     633      85
$ ... 59 like lines cut
CTRIAR       308       1     137     138     899
CTRIAR       309       1     121     644     105
CQUADR       310       1     644     145     624     105
CQUADR       311       1     145     740     625     624
CQUADR       312       1     740     626     106     625
CQUADR       313       1     626     741     107     106
CQUADR       314       1     741     144     632     107
CQUADR       315       1     144     700     108     632
CQUADR       316       1     700     652     109     108
CQUADR       317       1     652     143     756     109
CQUADR       318       1     143     701     110     756
CQUADR       319       1     701     611     610     110
CQUADR       320       1     611     142     702     610
CQUADR       321       1     142     615     616     702
CQUADR       322       1     615     342     332     616
CQUADR       323       1     342     141     704     332
CQUADR       324       1     141     140     873     704
CQUADR       325       1     140     598     331     873
CQUADR       326       1     598     333     874     331
CQUADR       327       1     167     151     899     138
CQUADR       328       1     151     884     883     899
CQUADR       329       1     884     147     111     883
$ ... 63 like lines cut
CTRIAR       393       1     152     334     638
CQUADR       394       1     161     162     135     134
CQUADR       395       1     823     678     794     170
CQUADR       396       1     162     163     136     135
CQUADR       397       1     163     164     137     136
CQUADR       398       1     164     905     138     137
CQUADR       399       1     905     800     167     138
CQUADR       400       1     691     903     674     894
CQUADR       401       1     658     691     894     659
CQUADR       402       1     692     658     659     139
CQUADR       403       1     588     692     139     893
CQUADR       404       1     693     588     893     361
CQUADR       405       1     689     693     361     892
CQUADR       406       1     183     689     892     356
CQUADR       407       1     345     183     356     890
CQUADR       408       1     184     345     890     341
CQUADR       409       1     185     184     341     340
CQUADR       410       1     321     185     340     338
CQUADR       411       1     889     321     338     337
CQUADR       412       1     336     889     337     333
CQUADR       413       1     599     336     333     598
$ ... 85 like lines cut
CTRIAR       499       1     181     216     681
CQUADR       500       1     732     779     171     172
CQUADR       501       1     779     778     202     171
CQUADR       502       1     778     795     203     202
CQUADR       503       1     731     732     172     173
CQUADR       504       1     217     731     173     174
CQUADR       505       1     845     217     174     175
CQUADR       506       1     858     845     175     857
CQUADR       507       1     859     858     857     176
CQUADR       508       1     865     859     176     177
CQUADR       509       1     765     865     177     764
CQUADR       510       1     562     765     764     178
CQUADR       511       1     563     562     178     179
CQUADR       512       1     715     563     179     714
CQUADR       513       1     752     715     714     180
CQUADR       514       1     565     752     180     680
CQUADR       515       1     901     565     680     900
CQUADR       516       1     254     901     900     902
CQUADR       517       1     739     254     902     681
CQUADR       518       1     257     682     216     181
CQUADR       519       1     737     257     181     182
$ ... 42 like lines cut
CTRIAR       562       1     228     322     326
CTRIAR       563       1     230     229     228
CQUADR       564       1     753     230     228     326
CQUADR       565       1     328     753     326     194
CQUADR       566       1     231     328     194     195
CQUADR       567       1     232     231     195     639
CQUADR       568       1     233     232     639     196
CQUADR       569       1     234     233     196     197
CQUADR       570       1     235     234     197     829
CQUADR       571       1     646     235     829     198
CQUADR       572       1     236     646     198     718
CQUADR       573       1     237     236     718     781
CQUADR       574       1     622     237     781     199
CQUADR       575       1     238     622     199     200
CQUADR       576       1     239     238     200     782
CQUADR       577       1     240     239     782     766
CQUADR       578       1     606     240     766     201
CQUADR       579       1     605     606     201     607
CQUADR       580       1     241     605     607     783
CQUADR       581       1     242     241     783     784
CQUADR       582       1     795     825     824     203
CQUADR       583       1     243     242     784     204
$ ... 27 like lines cut
CTRIAR       611       1     258     684     682
CQUADR       612       1     885     289     565     901
CQUADR       613       1     289     564     752     565
CQUADR       614       1     564     867     715     752
CQUADR       615       1     867     288     563     715
CQUADR       616       1     288     287     562     563
CQUADR       617       1     287     866     765     562
CQUADR       618       1     866     286     865     765
CQUADR       619       1     286     285     859     865
CQUADR       620       1     285     284     858     859
CQUADR       621       1     284     847     845     858
CQUADR       622       1     847     846     217     845
CQUADR       623       1     846     780     731     217
CQUADR       624       1     780     828     732     731
CQUADR       625       1     828     283     779     732
CQUADR       626       1     283     827     778     779
CQUADR       627       1     827     282     795     778
CQUADR       628       1     282     826     825     795
CQUADR       629       1     826     281     908     825
CQUADR       630       1     676     685     257     737
CQUADR       631       1     694     676     737     801
$ ... 43 like lines cut
CTRIAR       675       1     423     421     229
CQUADR       676       1     296     295     294     423
CQUADR       677       1     297     296     423     229
CQUADR       678       1     298     297     229     230
CQUADR       679       1     299     298     230     753
CQUADR       680       1     300     299     753     328
CQUADR       681       1     325     300     328     231
CQUADR       682       1     812     325     231     232
CQUADR       683       1     327     812     232     233
CQUADR       684       1     640     327     233     234
CQUADR       685       1     820     640     234     235
CQUADR       686       1     647     820     235     646
CQUADR       687       1     807     647     646     236
CQUADR       688       1     813     807     236     237
CQUADR       689       1     301     813     237     622
CQUADR       690       1     302     301     622     238
CQUADR       691       1     303     302     238     239
CQUADR       692       1     656     303     239     240
CQUADR       693       1     655     656     240     606
CQUADR       694       1     281     280     911     908
CQUADR       695       1     808     655     606     605
$ ... 31 like lines cut
CTRIAR       727       1     295     422     294
CQUADR       728       1     319     318     911     280
CQUADR       729       1     685     683     682     257
CQUADR       730       1     683     798     258     682
CQUADR       731       1     567     290     684     258
CQUADR       732       1     545     544     259     291
CQUADR       733       1     544     543     260     259
CQUADR       734       1     543     542     261     260
CQUADR       735       1     542     541     636     261
CQUADR       736       1     541     540     869     636
CQUADR       737       1     540     539     641     869
CQUADR       738       1     539     538     262     641
CQUADR       739       1     538     537     263     262
CQUADR       740       1     537     536     264     263
CQUADR       741       1     536     535     687     264
CQUADR       742       1     535     534     628     687
CQUADR       743       1     534     533     686     628
CQUADR       744       1     533     532     265     686
CQUADR       745       1     532     531     266     265
CQUADR       746       1     531     530     267     266
CQUADR       747       1     530     529     268     267
$ ... 110 like lines cut
CTRIAR       858       1     554     475     560
CBAR         859       2     559     425 .212164-98.5406  4.2382
CBAR         860       2     425     426 .134539-99.2504 4.04648
CBAR         861       2     426     427 .055121-99.2593 3.82382
CBAR         862       2     427     428  -.0243-99.2676  3.6012
CBAR         863       2     428     429-.103722-99.2754  3.3784
CBAR         864       2     429     430-.183143-99.2827  3.1558
CBAR         865       2     430     431-.086308-99.2976  2.6259
CBAR         866       2     431     432 .005097-99.3104   2.121
CBAR         867       2     432     433 .002713-99.3169  1.7828
CBAR         868       2     433     434 .000328-99.3224  1.4448
CBAR         869       2     434     435-2.057-3-99.3267  1.1066
CBAR         870       2     435     436-4.442-3  -99.33   .7684
CBAR         871       2     436     437-7.691-3 -99.332   .4327
CBAR         872       2     437     438-.013244 -99.333   .1236
CBAR         873       2     438     439-8.158-3 -99.333  -.1972
CBAR         874       2     439     440-3.072-3 -99.331   -.518
CBAR         875       2     440     441.0020139  -99.33  -.8389
CBAR         876       2     441     442.0070998 -99.326 -1.1596
CBAR         877       2     442     443.0121854 -99.322 -1.4804
CBAR         878       2     443     444.0102772 -99.317  -1.778
$ ... 32 like lines cut
$PROPERTIES
PSHELL         1       2      6.       2      1.       2  1.
PBAR           2       1552.9203133806.7133806.7203072.5
             22.                     22.    -22.                    -22.
              .5      .5
$MATERIALS
MAT1           1  68000.  25000.     .32
MAT1           2  2757.9 973.147    .417 1.541-9
            55.1
MAT8           3  2757.9  2757.9      0. 973.147                   1200.
$LOADS
LOAD           3      1.      1.       1      1.       2      1.       4
LOAD           5      1.      1.       1      1.       4
$1
FORCE          1     279        205.4805      0.-.324443.9733285
$1
FORCE          1     567        205.4805      0.-.324443.9733285
$1
FORCE          1     568        205.4805      0.-.324443.9733285
PLOAD4         2       1-2.541-5
               0      0.      0.      0.
PLOAD4         2       2-2.535-5
               0      0.      0.      0.
PLOAD4         2       3 -1.71-5
               0      0.      0.      0.
PLOAD4         2       4-1.373-5
               0      0.      0.      0.
PLOAD4         2       5-1.169-5
               0      0.      0.      0.
PLOAD4         2       6-2.047-6
               0      0.      0.      0.
PLOAD4         2       7-1.255-6
               0      0.      0.      0.
PLOAD4         2       8-5.041-5
               0      0.      0.      0.
PLOAD4         2       9 -5.04-5
               0      0.      0.      0.
PLOAD4         2      101.6504-5
               0      0.      0.      0.
PLOAD4         2      111.6204-5
               0      0.      0.      0.
PLOAD4         2      12-3.143-5
               0      0.      0.      0.
PLOAD4         2      13-3.284-5
               0      0.      0.      0.
PLOAD4         2      142.0532-5
               0      0.      0.      0.
PLOAD4         2      156.3311-6
               0      0.      0.      0.
PLOAD4         2      16-2.661-6
               0      0.      0.      0.
PLOAD4         2      173.3138-6
               0      0.      0.      0.
PLOAD4         2      183.6263-6
               0      0.      0.      0.
PLOAD4         2      19-9.984-6
               0      0.      0.      0.
PLOAD4         2      20-3.333-6
               0      0.      0.      0.
$ ... 1676 like lines cut
$4
FORCE          4     318             10.      0.     -1.      0.
$SPCs
SPCADD         3       2       4
$Front Edge
$ Constraint on Edge Id : 2
SPC1           1       1     425     426     427     428     429     430
             431     432     433     434     435     436     437     438
             439     440     441     442     443     444     445     446
             447     448     449     450     451     452     453     454
             455     456     457     458     459     460     461     462
             463     464     465     466     467     468     469     470
             471     472     473     474     475     559     560
$Outhaul
SPC1           2       1     279     567     568     666
SPC1           4   12346     559
SPC1           5      46       1       2       3       4       5       6
               7       8       9      10      11      12      13      14
              15      16      17      18      19      20      21      22
              23      24      25      26      27      28      29      30
              31      32      33      34      35      36      37      38
              39      40      41      42      43      44      45      46
              47      48      49      50      51      52      53      54
              55      56      57      58      59      60      61      62
              63      64      65      66      67      68      69      70
              71      72      73      74      75      76      77      78
              79      80      81      82      83      84      85      86
              87      88      89      90      91      92      93      94
              95      96      97      98      99     100     101     102
             103     104     105     106     107     108     109     110
             111     112     113     114     115     116     117     118
             119     120     121     122     123     124     125     126
             127     128     129     130     131     132     133     134
             135     136     137     138     139     140     141     142
             143     144     145     146     147     148     149     150
             151     152     153     154     155     156     157     158
             159     160     161     162     163     164     165     166
$ ... 94 like lines cut
ENDDATA
